<?xml version="1.0" encoding="UTF-8"?>

<!-- generated on 2025-12-14 03:24:08.935763 by Eclipse SUMO randomTrips.py v1.25.0
<configuration>
    <net-file value="austin.net.xml"/>
    <route-file value="routes_fleet.rou.xml"/>
    <prefix value="veh"/>
    <trip-attributes value="type=&quot;fleet&quot;"/>
    <fringe-factor value="10"/>
    <min-distance value="300.0"/>
</configuration>
-->

<routes xmlns:xsi="http://www.w3.org/2001/XMLSchema-instance" xsi:noNamespaceSchemaLocation="http://sumo.dlr.de/xsd/routes_file.xsd">
    <trip id="veh0" depart="0.00" from="15393746#0" to="-1222803942#2" type="fleet"/>
    <trip id="veh1" depart="1.00" from="-204974723#7" to="-15410418#4" type="fleet"/>
    <trip id="veh2" depart="2.00" from="164284785" to="15404032#3" type="fleet"/>
    <trip id="veh3" depart="3.00" from="436609293#0" to="-15378091#17" type="fleet"/>
    <trip id="veh4" depart="4.00" from="-805230603#5" to="-124953226#0" type="fleet"/>
    <trip id="veh5" depart="5.00" from="-15404724#9" to="1359558497" type="fleet"/>
    <trip id="veh6" depart="6.00" from="-1220952294#3" to="-15405268#1" type="fleet"/>
    <trip id="veh7" depart="7.00" from="15396340#4" to="15377802#7" type="fleet"/>
    <trip id="veh8" depart="8.00" from="-15404989#18" to="15387389#4" type="fleet"/>
    <trip id="veh9" depart="9.00" from="27401243#6" to="15407366#1" type="fleet"/>
    <trip id="veh10" depart="10.00" from="-328078198#3" to="-15396773#5" type="fleet"/>
    <trip id="veh11" depart="11.00" from="752871017#1" to="-41920089#0" type="fleet"/>
    <trip id="veh12" depart="12.00" from="-15377621#2" to="-15379840#1" type="fleet"/>
    <trip id="veh13" depart="13.00" from="328089345#0" to="15391469#7" type="fleet"/>
    <trip id="veh14" depart="14.00" from="30148684#0" to="165928080#0" type="fleet"/>
    <trip id="veh15" depart="15.00" from="1357861982#1" to="805230604#0" type="fleet"/>
    <trip id="veh16" depart="16.00" from="-436614748#2" to="15378911#0" type="fleet"/>
    <trip id="veh17" depart="17.00" from="32041875#2" to="15394531#1" type="fleet"/>
    <trip id="veh18" depart="18.00" from="352900436#2" to="15383995#5" type="fleet"/>
    <trip id="veh19" depart="19.00" from="15406552#4" to="-128248209#0" type="fleet"/>
    <trip id="veh20" depart="20.00" from="-15405999#8" to="-32041875#1" type="fleet"/>
    <trip id="veh21" depart="21.00" from="-144105924#4" to="-172660031#1" type="fleet"/>
    <trip id="veh22" depart="22.00" from="-15378823" to="-30754883#3" type="fleet"/>
    <trip id="veh23" depart="23.00" from="15392918#3" to="-655414189#2" type="fleet"/>
    <trip id="veh24" depart="24.00" from="-39369518#3" to="-15407553#1" type="fleet"/>
    <trip id="veh25" depart="25.00" from="15396018#1" to="15392150#3" type="fleet"/>
    <trip id="veh26" depart="26.00" from="-15396340#10" to="165369342" type="fleet"/>
    <trip id="veh27" depart="27.00" from="-15394548#2" to="-764593063#1" type="fleet"/>
    <trip id="veh28" depart="28.00" from="971873590" to="15398334#5" type="fleet"/>
    <trip id="veh29" depart="29.00" from="150350018#3" to="15405180#2" type="fleet"/>
    <trip id="veh30" depart="30.00" from="328078179#0" to="206156687#1" type="fleet"/>
    <trip id="veh31" depart="31.00" from="-15406082#1" to="-124953234#11" type="fleet"/>
    <trip id="veh32" depart="32.00" from="-30756756" to="-25784548#1" type="fleet"/>
    <trip id="veh33" depart="33.00" from="-15403942#0" to="655283380#0" type="fleet"/>
    <trip id="veh34" depart="34.00" from="37963635#2" to="-332353488#2" type="fleet"/>
    <trip id="veh35" depart="35.00" from="15397091#2" to="-972418311#2" type="fleet"/>
    <trip id="veh36" depart="36.00" from="436631400#2" to="124953234#7" type="fleet"/>
    <trip id="veh37" depart="37.00" from="-172660031#7" to="-204981566#6" type="fleet"/>
    <trip id="veh38" depart="38.00" from="152429714#0" to="-240181066#1" type="fleet"/>
    <trip id="veh39" depart="39.00" from="15379840#4" to="436613327#0" type="fleet"/>
    <trip id="veh40" depart="40.00" from="-574655981#2" to="-15409879#2" type="fleet"/>
    <trip id="veh41" depart="41.00" from="987285524#0" to="1378006045#1" type="fleet"/>
    <trip id="veh42" depart="42.00" from="-15377316#2" to="-128248209#6" type="fleet"/>
    <trip id="veh43" depart="43.00" from="-15380442#1" to="15396250#10" type="fleet"/>
    <trip id="veh44" depart="44.00" from="243096348#3" to="1061358868#0" type="fleet"/>
    <trip id="veh45" depart="45.00" from="-134566736#0" to="-775418983#4" type="fleet"/>
    <trip id="veh46" depart="46.00" from="981190733#0" to="150350058" type="fleet"/>
    <trip id="veh47" depart="47.00" from="-104944222#6" to="15410500#7" type="fleet"/>
    <trip id="veh48" depart="48.00" from="15402567#0" to="15376099#1" type="fleet"/>
    <trip id="veh49" depart="49.00" from="-179563387#1" to="15398989#11" type="fleet"/>
    <trip id="veh50" depart="50.00" from="-15380890" to="1096769906#2" type="fleet"/>
    <trip id="veh51" depart="51.00" from="104943994#1" to="656122511" type="fleet"/>
    <trip id="veh52" depart="52.00" from="37963635#10" to="-25703280#0" type="fleet"/>
    <trip id="veh53" depart="53.00" from="126468405#5" to="-15401944#0" type="fleet"/>
    <trip id="veh54" depart="54.00" from="436631364#1" to="37545350#3" type="fleet"/>
    <trip id="veh55" depart="55.00" from="-25758414#2" to="15398170#1" type="fleet"/>
    <trip id="veh56" depart="56.00" from="15385333#3" to="-15396083#1" type="fleet"/>
    <trip id="veh57" depart="57.00" from="204974799#1" to="15376722#4" type="fleet"/>
    <trip id="veh58" depart="58.00" from="204998689#2" to="152284541#1" type="fleet"/>
    <trip id="veh59" depart="59.00" from="-1018275136#0" to="-37749594#0" type="fleet"/>
    <trip id="veh60" depart="60.00" from="-1096769885#1" to="532632615#3" type="fleet"/>
    <trip id="veh61" depart="61.00" from="385783632#1" to="327170758#6" type="fleet"/>
    <trip id="veh62" depart="62.00" from="-30552450#2" to="-131544907#3" type="fleet"/>
    <trip id="veh63" depart="63.00" from="37997406#0" to="655477651#1" type="fleet"/>
    <trip id="veh64" depart="64.00" from="-152429714#1" to="131281632" type="fleet"/>
    <trip id="veh65" depart="65.00" from="-1357861981#1" to="204981553#4" type="fleet"/>
    <trip id="veh66" depart="66.00" from="204981562#0" to="-15389491" type="fleet"/>
    <trip id="veh67" depart="67.00" from="1195043018#1" to="15378526#6" type="fleet"/>
    <trip id="veh68" depart="68.00" from="-174371441#0" to="37749554#1" type="fleet"/>
    <trip id="veh69" depart="69.00" from="-835366683#1" to="-15408356#2" type="fleet"/>
    <trip id="veh70" depart="70.00" from="1359557180" to="165928080#4" type="fleet"/>
    <trip id="veh71" depart="71.00" from="-15401744#0" to="-328283045#2" type="fleet"/>
    <trip id="veh72" depart="72.00" from="978373765#0" to="15399682#10" type="fleet"/>
    <trip id="veh73" depart="73.00" from="-990859405#1" to="1446247802#3" type="fleet"/>
    <trip id="veh74" depart="74.00" from="-15383291#3" to="-15410719#5" type="fleet"/>
    <trip id="veh75" depart="75.00" from="-328078190#0" to="15387054#0" type="fleet"/>
    <trip id="veh76" depart="76.00" from="-15406828#2" to="-15410037" type="fleet"/>
    <trip id="veh77" depart="77.00" from="-1359316526#3" to="15396773#5" type="fleet"/>
    <trip id="veh78" depart="78.00" from="-15406082#0" to="436617515#0" type="fleet"/>
    <trip id="veh79" depart="79.00" from="334432961" to="-1429244106" type="fleet"/>
    <trip id="veh80" depart="80.00" from="-15404028#0" to="-15390736#6" type="fleet"/>
    <trip id="veh81" depart="81.00" from="619375202#2" to="15383288#18" type="fleet"/>
    <trip id="veh82" depart="82.00" from="1136660021#0" to="240181062#0" type="fleet"/>
    <trip id="veh83" depart="83.00" from="30148684#6" to="-15404018#0" type="fleet"/>
    <trip id="veh84" depart="84.00" from="-15378324#6" to="1096721797#12" type="fleet"/>
    <trip id="veh85" depart="85.00" from="-876463369#5" to="126468415#1" type="fleet"/>
    <trip id="veh86" depart="86.00" from="15410719#5" to="15404009#11" type="fleet"/>
    <trip id="veh87" depart="87.00" from="966682543" to="-15379915#8" type="fleet"/>
    <trip id="veh88" depart="88.00" from="-655283351#0" to="-436614670#0" type="fleet"/>
    <trip id="veh89" depart="89.00" from="352900436#2" to="-204981572#5" type="fleet"/>
    <trip id="veh90" depart="90.00" from="-15399682#10" to="124953107#8" type="fleet"/>
    <trip id="veh91" depart="91.00" from="-805230603#4" to="-30754885#1" type="fleet"/>
    <trip id="veh92" depart="92.00" from="-15409920#4" to="436726706#4" type="fleet"/>
    <trip id="veh93" depart="93.00" from="1021936385#8" to="332216335#1" type="fleet"/>
    <trip id="veh94" depart="94.00" from="149708853#0" to="-130624539#1" type="fleet"/>
    <trip id="veh95" depart="95.00" from="990859405#1" to="327172659#6" type="fleet"/>
    <trip id="veh96" depart="96.00" from="775418983#10" to="502997178#2" type="fleet"/>
    <trip id="veh97" depart="97.00" from="328089349#0" to="-15399227#9" type="fleet"/>
    <trip id="veh98" depart="98.00" from="124953129#4" to="-15408498#2" type="fleet"/>
    <trip id="veh99" depart="99.00" from="-619360110#0" to="-131544916#4" type="fleet"/>
    <trip id="veh100" depart="100.00" from="-436614751#1" to="968893579#0" type="fleet"/>
    <trip id="veh101" depart="101.00" from="-174371442#1" to="240179605#12" type="fleet"/>
    <trip id="veh102" depart="102.00" from="1051227517#1" to="1067210912" type="fleet"/>
    <trip id="veh103" depart="103.00" from="753567665#0" to="978657443#0" type="fleet"/>
    <trip id="veh104" depart="104.00" from="150349985#2" to="15410421#1" type="fleet"/>
    <trip id="veh105" depart="105.00" from="-15392304#15" to="-327172665" type="fleet"/>
    <trip id="veh106" depart="106.00" from="775418981#4" to="15384829#2" type="fleet"/>
    <trip id="veh107" depart="107.00" from="1372175698" to="189139450#5" type="fleet"/>
    <trip id="veh108" depart="108.00" from="-131173633#1" to="15385372#7" type="fleet"/>
    <trip id="veh109" depart="109.00" from="126569516#0" to="328283001#1" type="fleet"/>
    <trip id="veh110" depart="110.00" from="-15392917#2" to="759466689#2" type="fleet"/>
    <trip id="veh111" depart="111.00" from="-144469641" to="-15403402#5" type="fleet"/>
    <trip id="veh112" depart="112.00" from="15382770#1" to="15404028#2" type="fleet"/>
    <trip id="veh113" depart="113.00" from="422077770#1" to="-204981566#2" type="fleet"/>
    <trip id="veh114" depart="114.00" from="15382769#0" to="15394548#2" type="fleet"/>
    <trip id="veh115" depart="115.00" from="-775418981#3" to="15385333#3" type="fleet"/>
    <trip id="veh116" depart="116.00" from="1314208620#2" to="574655981#3" type="fleet"/>
    <trip id="veh117" depart="117.00" from="-15402566#0" to="15410186#1" type="fleet"/>
    <trip id="veh118" depart="118.00" from="-15408316#1" to="-972455280#1" type="fleet"/>
    <trip id="veh119" depart="119.00" from="15400204#1" to="-328078175#1" type="fleet"/>
    <trip id="veh120" depart="120.00" from="-310506129#3" to="204869512#1" type="fleet"/>
    <trip id="veh121" depart="121.00" from="-1370449390#0" to="124953234#2" type="fleet"/>
    <trip id="veh122" depart="122.00" from="990859317#0" to="981190732" type="fleet"/>
    <trip id="veh123" depart="123.00" from="-1371868449#2" to="-15408495#3" type="fleet"/>
    <trip id="veh124" depart="124.00" from="-174371442#1" to="574655980#10" type="fleet"/>
    <trip id="veh125" depart="125.00" from="392803158#5" to="37963635#6" type="fleet"/>
    <trip id="veh126" depart="126.00" from="-392803158#5" to="-15396947#3" type="fleet"/>
    <trip id="veh127" depart="127.00" from="327172653#15" to="15408375#1" type="fleet"/>
    <trip id="veh128" depart="128.00" from="15385935" to="971872090#2" type="fleet"/>
    <trip id="veh129" depart="129.00" from="15396946#2" to="-1040916272#0" type="fleet"/>
    <trip id="veh130" depart="130.00" from="310610559#1" to="-327172677#5" type="fleet"/>
    <trip id="veh131" depart="131.00" from="15399227#4" to="619375214#1" type="fleet"/>
    <trip id="veh132" depart="132.00" from="-15386841#1" to="-15384201#1" type="fleet"/>
    <trip id="veh133" depart="133.00" from="-15379915#3" to="15379377#3" type="fleet"/>
    <trip id="veh134" depart="134.00" from="-204869530#9" to="15391667" type="fleet"/>
    <trip id="veh135" depart="135.00" from="15408551#5" to="-15406292#1" type="fleet"/>
    <trip id="veh136" depart="136.00" from="15392321#0" to="-25703280#1" type="fleet"/>
    <trip id="veh137" depart="137.00" from="124953227#2" to="436617514#1" type="fleet"/>
    <trip id="veh138" depart="138.00" from="328078195" to="-15378710#0" type="fleet"/>
    <trip id="veh139" depart="139.00" from="-876463369#5" to="-30619971#17" type="fleet"/>
    <trip id="veh140" depart="140.00" from="-1021936385#20" to="204989775#9" type="fleet"/>
    <trip id="veh141" depart="141.00" from="15393385#5" to="-240181064#11" type="fleet"/>
    <trip id="veh142" depart="142.00" from="172047166#0" to="15378710#1" type="fleet"/>
    <trip id="veh143" depart="143.00" from="-959826880#4" to="-104944222#1" type="fleet"/>
    <trip id="veh144" depart="144.00" from="-1381860589" to="391685208#0" type="fleet"/>
    <trip id="veh145" depart="145.00" from="436616712#2" to="15378091#1" type="fleet"/>
    <trip id="veh146" depart="146.00" from="327172653#28" to="15385134#1" type="fleet"/>
    <trip id="veh147" depart="147.00" from="-15391466#8" to="-15389079#3" type="fleet"/>
    <trip id="veh148" depart="148.00" from="-30614458" to="436614668#1" type="fleet"/>
    <trip id="veh149" depart="149.00" from="25758414#0" to="331454916#4" type="fleet"/>
    <trip id="veh150" depart="150.00" from="436614669" to="-15408167#4" type="fleet"/>
    <trip id="veh151" depart="151.00" from="-15409920#0" to="-15381300#14" type="fleet"/>
    <trip id="veh152" depart="152.00" from="206156687#1" to="39369513#1" type="fleet"/>
    <trip id="veh153" depart="153.00" from="-655501839#1" to="15394603#4" type="fleet"/>
    <trip id="veh154" depart="154.00" from="-15392304#11" to="532632619#3" type="fleet"/>
    <trip id="veh155" depart="155.00" from="37020522" to="891734324#0" type="fleet"/>
    <trip id="veh156" depart="156.00" from="30619971#0" to="37997406#1" type="fleet"/>
    <trip id="veh157" depart="157.00" from="-1206490291#1" to="172229930" type="fleet"/>
    <trip id="veh158" depart="158.00" from="-327172660#0" to="548632573#5" type="fleet"/>
    <trip id="veh159" depart="159.00" from="27087209#0" to="349700537#1" type="fleet"/>
    <trip id="veh160" depart="160.00" from="30619971#0" to="-25758414#4" type="fleet"/>
    <trip id="veh161" depart="161.00" from="240179605#1" to="-15383288#1" type="fleet"/>
    <trip id="veh162" depart="162.00" from="37749570" to="328649892#0" type="fleet"/>
    <trip id="veh163" depart="163.00" from="-15405061#6" to="310610561#13" type="fleet"/>
    <trip id="veh164" depart="164.00" from="106990800#0" to="-328089349#0" type="fleet"/>
    <trip id="veh165" depart="165.00" from="25758412#12" to="-15411666#0" type="fleet"/>
    <trip id="veh166" depart="166.00" from="-1176353659#2" to="-15404282" type="fleet"/>
    <trip id="veh167" depart="167.00" from="-327172653#0" to="352900436#2" type="fleet"/>
    <trip id="veh168" depart="168.00" from="772564123#10" to="-30756755#1" type="fleet"/>
    <trip id="veh169" depart="169.00" from="15394549#0" to="-990859318#8" type="fleet"/>
    <trip id="veh170" depart="170.00" from="960849265#0" to="15375093#2" type="fleet"/>
    <trip id="veh171" depart="171.00" from="630242522#1" to="-15384201#0" type="fleet"/>
    <trip id="veh172" depart="172.00" from="775419156#2" to="-15401859#0" type="fleet"/>
    <trip id="veh173" depart="173.00" from="764467422#3" to="-25745320#1" type="fleet"/>
    <trip id="veh174" depart="174.00" from="-15380067#6" to="1096769897#2" type="fleet"/>
    <trip id="veh175" depart="175.00" from="15410500#7" to="-331454916#0" type="fleet"/>
    <trip id="veh176" depart="176.00" from="15384832#5" to="138387987#9" type="fleet"/>
    <trip id="veh177" depart="177.00" from="-436631385#1" to="15383867#3" type="fleet"/>
    <trip id="veh178" depart="178.00" from="-15410432#0" to="15408967#5" type="fleet"/>
    <trip id="veh179" depart="179.00" from="-1021936033#0" to="449402368#2" type="fleet"/>
    <trip id="veh180" depart="180.00" from="1359315343" to="15410432#5" type="fleet"/>
    <trip id="veh181" depart="181.00" from="172172687#2" to="15403603#9" type="fleet"/>
    <trip id="veh182" depart="182.00" from="-37749594#0" to="-138387987#5" type="fleet"/>
    <trip id="veh183" depart="183.00" from="15399285#0" to="-392803161#0" type="fleet"/>
    <trip id="veh184" depart="184.00" from="-30754884#4" to="328089347#2" type="fleet"/>
    <trip id="veh185" depart="185.00" from="15408967#5" to="-328078176#0" type="fleet"/>
    <trip id="veh186" depart="186.00" from="-30619853#1" to="1031883007#3" type="fleet"/>
    <trip id="veh187" depart="187.00" from="-640574576#1" to="-327172659#6" type="fleet"/>
    <trip id="veh188" depart="188.00" from="-15384828#8" to="1054317148#1" type="fleet"/>
    <trip id="veh189" depart="189.00" from="655283351#3" to="15404090#1" type="fleet"/>
    <trip id="veh190" depart="190.00" from="436615366#2" to="15393523#1" type="fleet"/>
    <trip id="veh191" depart="191.00" from="-263445405#0" to="15378324#8" type="fleet"/>
    <trip id="veh192" depart="192.00" from="-1008898689#1" to="-315904409#9" type="fleet"/>
    <trip id="veh193" depart="193.00" from="-960862120#0" to="15384830#1" type="fleet"/>
    <trip id="veh194" depart="194.00" from="15396947#7" to="126307523#5" type="fleet"/>
    <trip id="veh195" depart="195.00" from="1021936385#17" to="-15408498#1" type="fleet"/>
    <trip id="veh196" depart="196.00" from="1153089844" to="436614751#1" type="fleet"/>
    <trip id="veh197" depart="197.00" from="25758412#9" to="-15399683#2" type="fleet"/>
    <trip id="veh198" depart="198.00" from="-150350018#1" to="143948212#0" type="fleet"/>
    <trip id="veh199" depart="199.00" from="15392304#1" to="-41287630#2" type="fleet"/>
    <trip id="veh200" depart="200.00" from="310610561#7" to="204869468#2" type="fleet"/>
    <trip id="veh201" depart="201.00" from="15400551#6" to="-15410719#4" type="fleet"/>
    <trip id="veh202" depart="202.00" from="-15401007#1" to="-1222362983#1" type="fleet"/>
    <trip id="veh203" depart="203.00" from="-15409061#2" to="128248212#1" type="fleet"/>
    <trip id="veh204" depart="204.00" from="328089364#0" to="-144105924#0" type="fleet"/>
    <trip id="veh205" depart="205.00" from="-764461781#0" to="15396564#2" type="fleet"/>
    <trip id="veh206" depart="206.00" from="-15400203#3" to="15407267#20" type="fleet"/>
    <trip id="veh207" depart="207.00" from="124953703#7" to="-204981560#2" type="fleet"/>
    <trip id="veh208" depart="208.00" from="15397178#2" to="-1025315928#16" type="fleet"/>
    <trip id="veh209" depart="209.00" from="182385796#0" to="204989759#1" type="fleet"/>
    <trip id="veh210" depart="210.00" from="-15396947#8" to="752871012" type="fleet"/>
    <trip id="veh211" depart="211.00" from="1307778004#1" to="-129170706#3" type="fleet"/>
    <trip id="veh212" depart="212.00" from="-15409879#2" to="328089349#1" type="fleet"/>
    <trip id="veh213" depart="213.00" from="1052938884#8" to="30148684#5" type="fleet"/>
    <trip id="veh214" depart="214.00" from="15399682#3" to="971872092#1" type="fleet"/>
    <trip id="veh215" depart="215.00" from="15382778#0" to="655501845#0" type="fleet"/>
    <trip id="veh216" depart="216.00" from="422095332#1" to="15392601#1" type="fleet"/>
    <trip id="veh217" depart="217.00" from="15408967#13" to="1359316526#2" type="fleet"/>
    <trip id="veh218" depart="218.00" from="32065533#4" to="15378324#7" type="fleet"/>
    <trip id="veh219" depart="219.00" from="436612469#0" to="176875241#4" type="fleet"/>
    <trip id="veh220" depart="220.00" from="1188928432#11" to="-240179605#12" type="fleet"/>
    <trip id="veh221" depart="221.00" from="-15409427#1" to="15397921#3" type="fleet"/>
    <trip id="veh222" depart="222.00" from="204981562#0" to="149710067" type="fleet"/>
    <trip id="veh223" depart="223.00" from="15391285#1" to="-30149004#1" type="fleet"/>
    <trip id="veh224" depart="224.00" from="-1429244109#3" to="-315821986#4" type="fleet"/>
    <trip id="veh225" depart="225.00" from="-204869530#12" to="-37020525#8" type="fleet"/>
    <trip id="veh226" depart="226.00" from="136224828#3" to="-15392254#5" type="fleet"/>
    <trip id="veh227" depart="227.00" from="-15407025#1" to="15407111#1" type="fleet"/>
    <trip id="veh228" depart="228.00" from="15407128#1" to="-135623988#0" type="fleet"/>
    <trip id="veh229" depart="229.00" from="-655501852#0" to="15377360#0" type="fleet"/>
    <trip id="veh230" depart="230.00" from="-764467419#2" to="-15407267#28" type="fleet"/>
    <trip id="veh231" depart="231.00" from="-775418983#12" to="436616715#3" type="fleet"/>
    <trip id="veh232" depart="232.00" from="15379685#6" to="15407267#0" type="fleet"/>
    <trip id="veh233" depart="233.00" from="328839146#0" to="204981571#0" type="fleet"/>
    <trip id="veh234" depart="234.00" from="-436615366#0" to="-1025315928#3" type="fleet"/>
    <trip id="veh235" depart="235.00" from="-328839146#2" to="204964668#1" type="fleet"/>
    <trip id="veh236" depart="236.00" from="328283034" to="656122466" type="fleet"/>
    <trip id="veh237" depart="237.00" from="-775406588" to="185402190" type="fleet"/>
    <trip id="veh238" depart="238.00" from="143948186#0" to="15391469#10" type="fleet"/>
    <trip id="veh239" depart="239.00" from="-15404989#2" to="-15409882#0" type="fleet"/>
    <trip id="veh240" depart="240.00" from="-976878794#3" to="-124953132#5" type="fleet"/>
    <trip id="veh241" depart="241.00" from="-327172677#3" to="15404603#4" type="fleet"/>
    <trip id="veh242" depart="242.00" from="1096751890" to="-15389079#6" type="fleet"/>
    <trip id="veh243" depart="243.00" from="15390179#2" to="-124953109#1" type="fleet"/>
    <trip id="veh244" depart="244.00" from="-532632614#2" to="15381300#2" type="fleet"/>
    <trip id="veh245" depart="245.00" from="-1222362983#3" to="15399173#11" type="fleet"/>
    <trip id="veh246" depart="246.00" from="-15387054#0" to="1256341292#2" type="fleet"/>
    <trip id="veh247" depart="247.00" from="-128248212#2" to="-764477606#0" type="fleet"/>
    <trip id="veh248" depart="248.00" from="-15403943#2" to="-37997406#0" type="fleet"/>
    <trip id="veh249" depart="249.00" from="204974723#8" to="-764477606#0" type="fleet"/>
    <trip id="veh250" depart="250.00" from="189139450#4" to="327172651#0" type="fleet"/>
    <trip id="veh251" depart="251.00" from="-15410331#0" to="-15376746#1" type="fleet"/>
    <trip id="veh252" depart="252.00" from="-1096769885#0" to="15376722#5" type="fleet"/>
    <trip id="veh253" depart="253.00" from="992391723" to="-436724790#1" type="fleet"/>
    <trip id="veh254" depart="254.00" from="15396340#8" to="238149503#0" type="fleet"/>
    <trip id="veh255" depart="255.00" from="15396773#0" to="204964699#0" type="fleet"/>
    <trip id="veh256" depart="256.00" from="655501857#1" to="-15405636#0" type="fleet"/>
    <trip id="veh257" depart="257.00" from="-1096769891#3" to="-15396018#7" type="fleet"/>
    <trip id="veh258" depart="258.00" from="-15384201#1" to="15403402#3" type="fleet"/>
    <trip id="veh259" depart="259.00" from="15373800#0" to="-15409427#0" type="fleet"/>
    <trip id="veh260" depart="260.00" from="15405545#2" to="204981576#4" type="fleet"/>
    <trip id="veh261" depart="261.00" from="-15395994#1" to="15392131#1" type="fleet"/>
    <trip id="veh262" depart="262.00" from="176875231#1" to="-15383995#0" type="fleet"/>
    <trip id="veh263" depart="263.00" from="310612925#0" to="764477605#0" type="fleet"/>
    <trip id="veh264" depart="264.00" from="-15380067#2" to="-122981725" type="fleet"/>
    <trip id="veh265" depart="265.00" from="-30619971#3" to="15404090#2" type="fleet"/>
    <trip id="veh266" depart="266.00" from="753804297#3" to="-972610617#1" type="fleet"/>
    <trip id="veh267" depart="267.00" from="15408359#1" to="-150220101#6" type="fleet"/>
    <trip id="veh268" depart="268.00" from="15404025#0" to="15396083#0" type="fleet"/>
    <trip id="veh269" depart="269.00" from="-15379135#4" to="204998672#1" type="fleet"/>
    <trip id="veh270" depart="270.00" from="328090370" to="15390738#4" type="fleet"/>
    <trip id="veh271" depart="271.00" from="-15383292#0" to="960862123#0" type="fleet"/>
    <trip id="veh272" depart="272.00" from="224174783#3" to="-436631391" type="fleet"/>
    <trip id="veh273" depart="273.00" from="-960849264#6" to="-681748733" type="fleet"/>
    <trip id="veh274" depart="274.00" from="1275468371#1" to="-436614910" type="fleet"/>
    <trip id="veh275" depart="275.00" from="328089363#0" to="315821984#0" type="fleet"/>
    <trip id="veh276" depart="276.00" from="-15379771" to="759466689#2" type="fleet"/>
    <trip id="veh277" depart="277.00" from="15392918#1" to="320527211#4" type="fleet"/>
    <trip id="veh278" depart="278.00" from="15407267#11" to="1096769908#6" type="fleet"/>
    <trip id="veh279" depart="279.00" from="15411774#4" to="764477608#0" type="fleet"/>
    <trip id="veh280" depart="280.00" from="-203428719" to="30619970#2" type="fleet"/>
    <trip id="veh281" depart="281.00" from="1359315339#0" to="1307791300#0" type="fleet"/>
    <trip id="veh282" depart="282.00" from="-976878793#3" to="165928084#3" type="fleet"/>
    <trip id="veh283" depart="283.00" from="-185402191#1" to="328282995#0" type="fleet"/>
    <trip id="veh284" depart="284.00" from="32065533#6" to="-15378091#13" type="fleet"/>
    <trip id="veh285" depart="285.00" from="392803161#0" to="-204981560#11" type="fleet"/>
    <trip id="veh286" depart="286.00" from="1096490086#2" to="15392304#12" type="fleet"/>
    <trip id="veh287" depart="287.00" from="-436614751#1" to="-124953132#0" type="fleet"/>
    <trip id="veh288" depart="288.00" from="328282993#0" to="-15402567#0" type="fleet"/>
    <trip id="veh289" depart="289.00" from="-15403978#1" to="272423217#2" type="fleet"/>
    <trip id="veh290" depart="290.00" from="-328078198#5" to="37963642" type="fleet"/>
    <trip id="veh291" depart="291.00" from="15405941#0" to="-30619971#10" type="fleet"/>
    <trip id="veh292" depart="292.00" from="-104944221#6" to="655501761#0" type="fleet"/>
    <trip id="veh293" depart="293.00" from="-152429714#0" to="15410497#5" type="fleet"/>
    <trip id="veh294" depart="294.00" from="124953227#3" to="204974728#5" type="fleet"/>
    <trip id="veh295" depart="295.00" from="15404025#0" to="15399285#1" type="fleet"/>
    <trip id="veh296" depart="296.00" from="124953234#0" to="25775235#7" type="fleet"/>
    <trip id="veh297" depart="297.00" from="-15377621#6" to="-15410267#2" type="fleet"/>
    <trip id="veh298" depart="298.00" from="15404031#3" to="-328282986#0" type="fleet"/>
    <trip id="veh299" depart="299.00" from="15379377#2" to="128247531#1" type="fleet"/>
    <trip id="veh300" depart="300.00" from="134566736#8" to="1073379017" type="fleet"/>
    <trip id="veh301" depart="301.00" from="174373606" to="-39369518#4" type="fleet"/>
    <trip id="veh302" depart="302.00" from="15405999#6" to="-272417991#5" type="fleet"/>
    <trip id="veh303" depart="303.00" from="-15410185#1" to="-15385870#0" type="fleet"/>
    <trip id="veh304" depart="304.00" from="-15399853#4" to="-15385576" type="fleet"/>
    <trip id="veh305" depart="305.00" from="1357797441" to="204981560#8" type="fleet"/>
    <trip id="veh306" depart="306.00" from="-15399227#0" to="-15408967#4" type="fleet"/>
    <trip id="veh307" depart="307.00" from="124953119#1" to="15411421#2" type="fleet"/>
    <trip id="veh308" depart="308.00" from="899987076" to="150220101#8" type="fleet"/>
    <trip id="veh309" depart="309.00" from="-204989749#10" to="-15380457#5" type="fleet"/>
    <trip id="veh310" depart="310.00" from="-15400170#4" to="-15411666#0" type="fleet"/>
    <trip id="veh311" depart="311.00" from="-15398166#0" to="-1095950087#1" type="fleet"/>
    <trip id="veh312" depart="312.00" from="1355952416#0" to="-30148988#8" type="fleet"/>
    <trip id="veh313" depart="313.00" from="835366683#2" to="15379377#5" type="fleet"/>
    <trip id="veh314" depart="314.00" from="15405027#0" to="-15388180#4" type="fleet"/>
    <trip id="veh315" depart="315.00" from="37692933#8" to="131544907#3" type="fleet"/>
    <trip id="veh316" depart="316.00" from="37749583#0" to="15383470#0" type="fleet"/>
    <trip id="veh317" depart="317.00" from="1096769907#0" to="1195043018#6" type="fleet"/>
    <trip id="veh318" depart="318.00" from="-15399173#11" to="-130668790#1" type="fleet"/>
    <trip id="veh319" depart="319.00" from="655283380#2" to="129170700#0" type="fleet"/>
    <trip id="veh320" depart="320.00" from="31165981#0" to="1012817139" type="fleet"/>
    <trip id="veh321" depart="321.00" from="-1378006045#1" to="15396486#1" type="fleet"/>
    <trip id="veh322" depart="322.00" from="-130305195#0" to="-15395417#10" type="fleet"/>
    <trip id="veh323" depart="323.00" from="153128279#0" to="-328078199#2" type="fleet"/>
    <trip id="veh324" depart="324.00" from="978135750" to="-15385134#0" type="fleet"/>
    <trip id="veh325" depart="325.00" from="204981554#5" to="15392015#3" type="fleet"/>
    <trip id="veh326" depart="326.00" from="240181064#5" to="-15411162" type="fleet"/>
    <trip id="veh327" depart="327.00" from="1021936385#25" to="328901450#1" type="fleet"/>
    <trip id="veh328" depart="328.00" from="971873591" to="-328089349#1" type="fleet"/>
    <trip id="veh329" depart="329.00" from="15390115#16" to="15392150#3" type="fleet"/>
    <trip id="veh330" depart="330.00" from="165928093" to="655501627#2" type="fleet"/>
    <trip id="veh331" depart="331.00" from="-15403401#15" to="-15408181#1" type="fleet"/>
    <trip id="veh332" depart="332.00" from="15398588#1" to="-15396946#0" type="fleet"/>